CM Simulation de l'antenne MicroVert de DL7PE
CM Bande 80m avec contrepoid vertical
CM Radiateur:
CM - Longueur = 1306 mm
CM - Diamètre = 25 mm
CM Bobine:
CM - Diamètre : 21 mm
CM - Longueur = 700 mm
CM - Nb de tours : 435
CM par F1GBD (Jean-Louis Naudin) - ADRASEC 77
CE
GW	1	1	0.0125	0	17.03	0.0125	0	17.248	1.881e-3
GW	2	1	0.0125	0	17.248	0.0125	0	17.465	1.881e-3
GW	3	1	0.0125	0	17.465	0.0125	0	17.683	1.881e-3
GW	4	1	0.0125	0	17.683	0.0125	0	17.901	1.881e-3
GW	5	1	0.0125	0	17.901	0.0125	0	18.118	1.881e-3
GW	6	1	0.0125	0	18.118	0.0125	0	18.336	1.881e-3
GW	7	1	6.25e-3	0.010825	17.03	6.25e-3	0.010825	17.248	1.881e-3
GW	8	1	6.25e-3	0.010825	17.248	6.25e-3	0.010825	17.465	1.881e-3
GW	9	1	6.25e-3	0.010825	17.465	6.25e-3	0.010825	17.683	1.881e-3
GW	10	1	6.25e-3	0.010825	17.683	6.25e-3	0.010825	17.901	1.881e-3
GW	11	1	6.25e-3	0.010825	17.901	6.25e-3	0.010825	18.118	1.881e-3
GW	12	1	6.25e-3	0.010825	18.118	6.25e-3	0.010825	18.336	1.881e-3
GW	13	1	-6.25e-3	0.010825	17.03	-6.25e-3	0.010825	17.248	1.881e-3
GW	14	1	-6.25e-3	0.010825	17.248	-6.25e-3	0.010825	17.465	1.881e-3
GW	15	1	-6.25e-3	0.010825	17.465	-6.25e-3	0.010825	17.683	1.881e-3
GW	16	1	-6.25e-3	0.010825	17.683	-6.25e-3	0.010825	17.901	1.881e-3
GW	17	1	-6.25e-3	0.010825	17.901	-6.25e-3	0.010825	18.118	1.881e-3
GW	18	1	-6.25e-3	0.010825	18.118	-6.25e-3	0.010825	18.336	1.881e-3
GW	19	1	-0.0125	0	17.03	-0.0125	0	17.248	1.881e-3
GW	20	1	-0.0125	0	17.248	-0.0125	0	17.465	1.881e-3
GW	21	1	-0.0125	0	17.465	-0.0125	0	17.683	1.881e-3
GW	22	1	-0.0125	0	17.683	-0.0125	0	17.901	1.881e-3
GW	23	1	-0.0125	0	17.901	-0.0125	0	18.118	1.881e-3
GW	24	1	-0.0125	0	18.118	-0.0125	0	18.336	1.881e-3
GW	25	1	-6.25e-3	-0.010825	17.03	-6.25e-3	-0.010825	17.248	1.881e-3
GW	26	1	-6.25e-3	-0.010825	17.248	-6.25e-3	-0.010825	17.465	1.881e-3
GW	27	1	-6.25e-3	-0.010825	17.465	-6.25e-3	-0.010825	17.683	1.881e-3
GW	28	1	-6.25e-3	-0.010825	17.683	-6.25e-3	-0.010825	17.901	1.881e-3
GW	29	1	-6.25e-3	-0.010825	17.901	-6.25e-3	-0.010825	18.118	1.881e-3
GW	30	1	-6.25e-3	-0.010825	18.118	-6.25e-3	-0.010825	18.336	1.881e-3
GW	31	1	6.25e-3	-0.010825	17.03	6.25e-3	-0.010825	17.248	1.881e-3
GW	32	1	6.25e-3	-0.010825	17.248	6.25e-3	-0.010825	17.465	1.881e-3
GW	33	1	6.25e-3	-0.010825	17.465	6.25e-3	-0.010825	17.683	1.881e-3
GW	34	1	6.25e-3	-0.010825	17.683	6.25e-3	-0.010825	17.901	1.881e-3
GW	35	1	6.25e-3	-0.010825	17.901	6.25e-3	-0.010825	18.118	1.881e-3
GW	36	1	6.25e-3	-0.010825	18.118	6.25e-3	-0.010825	18.336	1.881e-3
GW	37	1	0.0125	0	17.03	6.25e-3	0.010825	17.03	1.881e-3
GW	38	1	6.25e-3	0.010825	17.03	-6.25e-3	0.010825	17.03	1.881e-3
GW	39	1	-6.25e-3	0.010825	17.03	-0.0125	0	17.03	1.881e-3
GW	40	1	-0.0125	0	17.03	-6.25e-3	-0.010825	17.03	1.881e-3
GW	41	1	-6.25e-3	-0.010825	17.03	6.25e-3	-0.010825	17.03	1.881e-3
GW	42	1	6.25e-3	-0.010825	17.03	0.0125	0	17.03	1.881e-3
GW	43	1	-1.973e-15	0	17.03	2.083e-3	0	17.03	7.2e-5
GW	44	1	2.083e-3	0	17.03	4.167e-3	0	17.03	1.44e-4
GW	45	1	4.167e-3	0	17.03	6.25e-3	0	17.03	1.79e-4
GW	46	1	6.25e-3	0	17.03	8.333e-3	0	17.03	2.01e-4
GW	47	1	8.333e-3	0	17.03	0.010417	0	17.03	2.15e-4
GW	48	1	0.010417	0	17.03	0.0125	0	17.03	2.26e-4
GW	49	1	-1.973e-15	0	17.03	1.042e-3	1.804e-3	17.03	7.2e-5
GW	50	1	1.042e-3	1.804e-3	17.03	2.083e-3	3.608e-3	17.03	1.44e-4
GW	51	1	2.083e-3	3.608e-3	17.03	3.125e-3	5.413e-3	17.03	1.79e-4
GW	52	1	3.125e-3	5.413e-3	17.03	4.167e-3	7.217e-3	17.03	2.01e-4
GW	53	1	4.167e-3	7.217e-3	17.03	5.208e-3	9.021e-3	17.03	2.15e-4
GW	54	1	5.208e-3	9.021e-3	17.03	6.25e-3	0.010825	17.03	2.26e-4
GW	55	1	-1.973e-15	0	17.03	-1.042e-3	1.804e-3	17.03	7.2e-5
GW	56	1	-1.042e-3	1.804e-3	17.03	-2.083e-3	3.608e-3	17.03	1.44e-4
GW	57	1	-2.083e-3	3.608e-3	17.03	-3.125e-3	5.413e-3	17.03	1.79e-4
GW	58	1	-3.125e-3	5.413e-3	17.03	-4.167e-3	7.217e-3	17.03	2.01e-4
GW	59	1	-4.167e-3	7.217e-3	17.03	-5.208e-3	9.021e-3	17.03	2.15e-4
GW	60	1	-5.208e-3	9.021e-3	17.03	-6.25e-3	0.010825	17.03	2.26e-4
GW	61	1	-1.973e-15	0	17.03	-2.083e-3	0	17.03	7.2e-5
GW	62	1	-2.083e-3	0	17.03	-4.167e-3	0	17.03	1.44e-4
GW	63	1	-4.167e-3	0	17.03	-6.25e-3	0	17.03	1.79e-4
GW	64	1	-6.25e-3	0	17.03	-8.333e-3	0	17.03	2.01e-4
GW	65	1	-8.333e-3	0	17.03	-0.010417	0	17.03	2.15e-4
GW	66	1	-0.010417	0	17.03	-0.0125	0	17.03	2.26e-4
GW	67	1	-1.973e-15	0	17.03	-1.042e-3	-1.804e-3	17.03	7.2e-5
GW	68	1	-1.042e-3	-1.804e-3	17.03	-2.083e-3	-3.608e-3	17.03	1.44e-4
GW	69	1	-2.083e-3	-3.608e-3	17.03	-3.125e-3	-5.413e-3	17.03	1.79e-4
GW	70	1	-3.125e-3	-5.413e-3	17.03	-4.167e-3	-7.217e-3	17.03	2.01e-4
GW	71	1	-4.167e-3	-7.217e-3	17.03	-5.208e-3	-9.021e-3	17.03	2.15e-4
GW	72	1	-5.208e-3	-9.021e-3	17.03	-6.25e-3	-0.010825	17.03	2.26e-4
GW	73	1	-1.973e-15	0	17.03	1.042e-3	-1.804e-3	17.03	7.2e-5
GW	74	1	1.042e-3	-1.804e-3	17.03	2.083e-3	-3.608e-3	17.03	1.44e-4
GW	75	1	2.083e-3	-3.608e-3	17.03	3.125e-3	-5.413e-3	17.03	1.79e-4
GW	76	1	3.125e-3	-5.413e-3	17.03	4.167e-3	-7.217e-3	17.03	2.01e-4
GW	77	1	4.167e-3	-7.217e-3	17.03	5.208e-3	-9.021e-3	17.03	2.15e-4
GW	78	1	5.208e-3	-9.021e-3	17.03	6.25e-3	-0.010825	17.03	2.26e-4
GW	79	1	2.083e-3	0	17.03	1.042e-3	1.804e-3	17.03	7.2e-5
GW	80	1	1.042e-3	1.804e-3	17.03	-1.042e-3	1.804e-3	17.03	7.2e-5
GW	81	1	-1.042e-3	1.804e-3	17.03	-2.083e-3	0	17.03	7.2e-5
GW	82	1	-2.083e-3	0	17.03	-1.042e-3	-1.804e-3	17.03	7.2e-5
GW	83	1	-1.042e-3	-1.804e-3	17.03	1.042e-3	-1.804e-3	17.03	7.2e-5
GW	84	1	1.042e-3	-1.804e-3	17.03	2.083e-3	0	17.03	7.2e-5
GW	85	1	4.167e-3	0	17.03	2.083e-3	3.608e-3	17.03	1.44e-4
GW	86	1	2.083e-3	3.608e-3	17.03	-2.083e-3	3.608e-3	17.03	1.44e-4
GW	87	1	-2.083e-3	3.608e-3	17.03	-4.167e-3	0	17.03	1.44e-4
GW	88	1	-4.167e-3	0	17.03	-2.083e-3	-3.608e-3	17.03	1.44e-4
GW	89	1	-2.083e-3	-3.608e-3	17.03	2.083e-3	-3.608e-3	17.03	1.44e-4
GW	90	1	2.083e-3	-3.608e-3	17.03	4.167e-3	0	17.03	1.44e-4
GW	91	1	6.25e-3	0	17.03	3.125e-3	5.413e-3	17.03	1.79e-4
GW	92	1	3.125e-3	5.413e-3	17.03	-3.125e-3	5.413e-3	17.03	1.79e-4
GW	93	1	-3.125e-3	5.413e-3	17.03	-6.25e-3	0	17.03	1.79e-4
GW	94	1	-6.25e-3	0	17.03	-3.125e-3	-5.413e-3	17.03	1.79e-4
GW	95	1	-3.125e-3	-5.413e-3	17.03	3.125e-3	-5.413e-3	17.03	1.79e-4
GW	96	1	3.125e-3	-5.413e-3	17.03	6.25e-3	0	17.03	1.79e-4
GW	97	1	8.333e-3	0	17.03	4.167e-3	7.217e-3	17.03	2.01e-4
GW	98	1	4.167e-3	7.217e-3	17.03	-4.167e-3	7.217e-3	17.03	2.01e-4
GW	99	1	-4.167e-3	7.217e-3	17.03	-8.333e-3	0	17.03	2.01e-4
GW	100	1	-8.333e-3	0	17.03	-4.167e-3	-7.217e-3	17.03	2.01e-4
GW	101	1	-4.167e-3	-7.217e-3	17.03	4.167e-3	-7.217e-3	17.03	2.01e-4
GW	102	1	4.167e-3	-7.217e-3	17.03	8.333e-3	0	17.03	2.01e-4
GW	103	1	0.010417	0	17.03	5.208e-3	9.021e-3	17.03	2.15e-4
GW	104	1	5.208e-3	9.021e-3	17.03	-5.208e-3	9.021e-3	17.03	2.15e-4
GW	105	1	-5.208e-3	9.021e-3	17.03	-0.010417	0	17.03	2.15e-4
GW	106	1	-0.010417	0	17.03	-5.208e-3	-9.021e-3	17.03	2.15e-4
GW	107	1	-5.208e-3	-9.021e-3	17.03	5.208e-3	-9.021e-3	17.03	2.15e-4
GW	108	1	5.208e-3	-9.021e-3	17.03	0.010417	0	17.03	2.15e-4
GW	109	1	0.0125	0	17.248	6.25e-3	0.010825	17.248	1.881e-3
GW	110	1	6.25e-3	0.010825	17.248	-6.25e-3	0.010825	17.248	1.881e-3
GW	111	1	-6.25e-3	0.010825	17.248	-0.0125	0	17.248	1.881e-3
GW	112	1	-0.0125	0	17.248	-6.25e-3	-0.010825	17.248	1.881e-3
GW	113	1	-6.25e-3	-0.010825	17.248	6.25e-3	-0.010825	17.248	1.881e-3
GW	114	1	6.25e-3	-0.010825	17.248	0.0125	0	17.248	1.881e-3
GW	115	1	0.0125	0	17.465	6.25e-3	0.010825	17.465	1.881e-3
GW	116	1	6.25e-3	0.010825	17.465	-6.25e-3	0.010825	17.465	1.881e-3
GW	117	1	-6.25e-3	0.010825	17.465	-0.0125	0	17.465	1.881e-3
GW	118	1	-0.0125	0	17.465	-6.25e-3	-0.010825	17.465	1.881e-3
GW	119	1	-6.25e-3	-0.010825	17.465	6.25e-3	-0.010825	17.465	1.881e-3
GW	120	1	6.25e-3	-0.010825	17.465	0.0125	0	17.465	1.881e-3
GW	121	1	0.0125	0	17.683	6.25e-3	0.010825	17.683	1.881e-3
GW	122	1	6.25e-3	0.010825	17.683	-6.25e-3	0.010825	17.683	1.881e-3
GW	123	1	-6.25e-3	0.010825	17.683	-0.0125	0	17.683	1.881e-3
GW	124	1	-0.0125	0	17.683	-6.25e-3	-0.010825	17.683	1.881e-3
GW	125	1	-6.25e-3	-0.010825	17.683	6.25e-3	-0.010825	17.683	1.881e-3
GW	126	1	6.25e-3	-0.010825	17.683	0.0125	0	17.683	1.881e-3
GW	127	1	0.0125	0	17.901	6.25e-3	0.010825	17.901	1.881e-3
GW	128	1	6.25e-3	0.010825	17.901	-6.25e-3	0.010825	17.901	1.881e-3
GW	129	1	-6.25e-3	0.010825	17.901	-0.0125	0	17.901	1.881e-3
GW	130	1	-0.0125	0	17.901	-6.25e-3	-0.010825	17.901	1.881e-3
GW	131	1	-6.25e-3	-0.010825	17.901	6.25e-3	-0.010825	17.901	1.881e-3
GW	132	1	6.25e-3	-0.010825	17.901	0.0125	0	17.901	1.881e-3
GW	133	1	0.0125	0	18.118	6.25e-3	0.010825	18.118	1.881e-3
GW	134	1	6.25e-3	0.010825	18.118	-6.25e-3	0.010825	18.118	1.881e-3
GW	135	1	-6.25e-3	0.010825	18.118	-0.0125	0	18.118	1.881e-3
GW	136	1	-0.0125	0	18.118	-6.25e-3	-0.010825	18.118	1.881e-3
GW	137	1	-6.25e-3	-0.010825	18.118	6.25e-3	-0.010825	18.118	1.881e-3
GW	138	1	6.25e-3	-0.010825	18.118	0.0125	0	18.118	1.881e-3
GW	139	1	0.0125	0	18.336	6.25e-3	0.010825	18.336	1.881e-3
GW	140	1	6.25e-3	0.010825	18.336	-6.25e-3	0.010825	18.336	1.881e-3
GW	141	1	-6.25e-3	0.010825	18.336	-0.0125	0	18.336	1.881e-3
GW	142	1	-0.0125	0	18.336	-6.25e-3	-0.010825	18.336	1.881e-3
GW	143	1	-6.25e-3	-0.010825	18.336	6.25e-3	-0.010825	18.336	1.881e-3
GW	144	1	6.25e-3	-0.010825	18.336	0.0125	0	18.336	1.881e-3
GW	145	1	-1.973e-15	0	18.336	2.083e-3	0	18.336	7.2e-5
GW	146	1	2.083e-3	0	18.336	4.167e-3	0	18.336	1.44e-4
GW	147	1	4.167e-3	0	18.336	6.25e-3	0	18.336	1.79e-4
GW	148	1	6.25e-3	0	18.336	8.333e-3	0	18.336	2.01e-4
GW	149	1	8.333e-3	0	18.336	0.010417	0	18.336	2.15e-4
GW	150	1	0.010417	0	18.336	0.0125	0	18.336	2.26e-4
GW	151	1	-1.973e-15	0	18.336	1.042e-3	1.804e-3	18.336	7.2e-5
GW	152	1	1.042e-3	1.804e-3	18.336	2.083e-3	3.608e-3	18.336	1.44e-4
GW	153	1	2.083e-3	3.608e-3	18.336	3.125e-3	5.413e-3	18.336	1.79e-4
GW	154	1	3.125e-3	5.413e-3	18.336	4.167e-3	7.217e-3	18.336	2.01e-4
GW	155	1	4.167e-3	7.217e-3	18.336	5.208e-3	9.021e-3	18.336	2.15e-4
GW	156	1	5.208e-3	9.021e-3	18.336	6.25e-3	0.010825	18.336	2.26e-4
GW	157	1	-1.973e-15	0	18.336	-1.042e-3	1.804e-3	18.336	7.2e-5
GW	158	1	-1.042e-3	1.804e-3	18.336	-2.083e-3	3.608e-3	18.336	1.44e-4
GW	159	1	-2.083e-3	3.608e-3	18.336	-3.125e-3	5.413e-3	18.336	1.79e-4
GW	160	1	-3.125e-3	5.413e-3	18.336	-4.167e-3	7.217e-3	18.336	2.01e-4
GW	161	1	-4.167e-3	7.217e-3	18.336	-5.208e-3	9.021e-3	18.336	2.15e-4
GW	162	1	-5.208e-3	9.021e-3	18.336	-6.25e-3	0.010825	18.336	2.26e-4
GW	163	1	-1.973e-15	0	18.336	-2.083e-3	0	18.336	7.2e-5
GW	164	1	-2.083e-3	0	18.336	-4.167e-3	0	18.336	1.44e-4
GW	165	1	-4.167e-3	0	18.336	-6.25e-3	0	18.336	1.79e-4
GW	166	1	-6.25e-3	0	18.336	-8.333e-3	0	18.336	2.01e-4
GW	167	1	-8.333e-3	0	18.336	-0.010417	0	18.336	2.15e-4
GW	168	1	-0.010417	0	18.336	-0.0125	0	18.336	2.26e-4
GW	169	1	-1.973e-15	0	18.336	-1.042e-3	-1.804e-3	18.336	7.2e-5
GW	170	1	-1.042e-3	-1.804e-3	18.336	-2.083e-3	-3.608e-3	18.336	1.44e-4
GW	171	1	-2.083e-3	-3.608e-3	18.336	-3.125e-3	-5.413e-3	18.336	1.79e-4
GW	172	1	-3.125e-3	-5.413e-3	18.336	-4.167e-3	-7.217e-3	18.336	2.01e-4
GW	173	1	-4.167e-3	-7.217e-3	18.336	-5.208e-3	-9.021e-3	18.336	2.15e-4
GW	174	1	-5.208e-3	-9.021e-3	18.336	-6.25e-3	-0.010825	18.336	2.26e-4
GW	175	1	-1.973e-15	0	18.336	1.042e-3	-1.804e-3	18.336	7.2e-5
GW	176	1	1.042e-3	-1.804e-3	18.336	2.083e-3	-3.608e-3	18.336	1.44e-4
GW	177	1	2.083e-3	-3.608e-3	18.336	3.125e-3	-5.413e-3	18.336	1.79e-4
GW	178	1	3.125e-3	-5.413e-3	18.336	4.167e-3	-7.217e-3	18.336	2.01e-4
GW	179	1	4.167e-3	-7.217e-3	18.336	5.208e-3	-9.021e-3	18.336	2.15e-4
GW	180	1	5.208e-3	-9.021e-3	18.336	6.25e-3	-0.010825	18.336	2.26e-4
GW	181	1	2.083e-3	0	18.336	1.042e-3	1.804e-3	18.336	7.2e-5
GW	182	1	1.042e-3	1.804e-3	18.336	-1.042e-3	1.804e-3	18.336	7.2e-5
GW	183	1	-1.042e-3	1.804e-3	18.336	-2.083e-3	0	18.336	7.2e-5
GW	184	1	-2.083e-3	0	18.336	-1.042e-3	-1.804e-3	18.336	7.2e-5
GW	185	1	-1.042e-3	-1.804e-3	18.336	1.042e-3	-1.804e-3	18.336	7.2e-5
GW	186	1	1.042e-3	-1.804e-3	18.336	2.083e-3	0	18.336	7.2e-5
GW	187	1	4.167e-3	0	18.336	2.083e-3	3.608e-3	18.336	1.44e-4
GW	188	1	2.083e-3	3.608e-3	18.336	-2.083e-3	3.608e-3	18.336	1.44e-4
GW	189	1	-2.083e-3	3.608e-3	18.336	-4.167e-3	0	18.336	1.44e-4
GW	190	1	-4.167e-3	0	18.336	-2.083e-3	-3.608e-3	18.336	1.44e-4
GW	191	1	-2.083e-3	-3.608e-3	18.336	2.083e-3	-3.608e-3	18.336	1.44e-4
GW	192	1	2.083e-3	-3.608e-3	18.336	4.167e-3	0	18.336	1.44e-4
GW	193	1	6.25e-3	0	18.336	3.125e-3	5.413e-3	18.336	1.79e-4
GW	194	1	3.125e-3	5.413e-3	18.336	-3.125e-3	5.413e-3	18.336	1.79e-4
GW	195	1	-3.125e-3	5.413e-3	18.336	-6.25e-3	0	18.336	1.79e-4
GW	196	1	-6.25e-3	0	18.336	-3.125e-3	-5.413e-3	18.336	1.79e-4
GW	197	1	-3.125e-3	-5.413e-3	18.336	3.125e-3	-5.413e-3	18.336	1.79e-4
GW	198	1	3.125e-3	-5.413e-3	18.336	6.25e-3	0	18.336	1.79e-4
GW	199	1	8.333e-3	0	18.336	4.167e-3	7.217e-3	18.336	2.01e-4
GW	200	1	4.167e-3	7.217e-3	18.336	-4.167e-3	7.217e-3	18.336	2.01e-4
GW	201	1	-4.167e-3	7.217e-3	18.336	-8.333e-3	0	18.336	2.01e-4
GW	202	1	-8.333e-3	0	18.336	-4.167e-3	-7.217e-3	18.336	2.01e-4
GW	203	1	-4.167e-3	-7.217e-3	18.336	4.167e-3	-7.217e-3	18.336	2.01e-4
GW	204	1	4.167e-3	-7.217e-3	18.336	8.333e-3	0	18.336	2.01e-4
GW	205	1	0.010417	0	18.336	5.208e-3	9.021e-3	18.336	2.15e-4
GW	206	1	5.208e-3	9.021e-3	18.336	-5.208e-3	9.021e-3	18.336	2.15e-4
GW	207	1	-5.208e-3	9.021e-3	18.336	-0.010417	0	18.336	2.15e-4
GW	208	1	-0.010417	0	18.336	-5.208e-3	-9.021e-3	18.336	2.15e-4
GW	209	1	-5.208e-3	-9.021e-3	18.336	5.208e-3	-9.021e-3	18.336	2.15e-4
GW	210	1	5.208e-3	-9.021e-3	18.336	0.010417	0	18.336	2.15e-4
GW	211	3	-1.973e-15	0	17.03	-2.059e-15	0	16.33	3.e-3
GW	212	1	-1.973e-15	0	16.33	-1.973e-15	0	16.31	5.e-3
GW	213	79	-1.973e-15	0	16.31	0	0	0.2	5.e-3
GE	-1
LD	0	211	2	2	0	8.5e-5
GN	2	0	0	0	15	0.01
EK
EX	0	212	1	0	1	0	0
FR	0	0	0	0	3.61	0
EN
