CM Antenne verticale Lambda/4 pour 80m avec radians
CM Projet GWEN par F1GBD (Jean-Louis Naudin) - ADRASEC 77
CE
GW	1	1	0	0	3.052009	0	0	2.952009	0.0127
GW	2	71	0	0	2.952009	14.339334	0	0.54470737	1.28e-3
GW	3	71	0	0	2.952009	0	14.339334	0.54470737	1.28e-3
GW	4	71	0	0	2.952009	-14.339334	0	0.54470737	1.28e-3
GW	5	105	0	0	3.052009	0	0	24.7	0.0127
GW	6	71	0	0	2.952009	0	-14.339334	0.54470737	1.28e-3
GW	7	71	0	0	2.952009	10.1394404	10.1394404	0.54470792	1.28e-3
GW	8	71	0	0	2.952009	10.1394404	-10.13944	0.54470792	1.28e-3
GW	9	71	0	0	2.952009	-10.13944	-10.13944	0.54470792	1.28e-3
GW	10	71	0	0	2.952009	-10.13944	10.1394404	0.54470792	1.28e-3
GE	-1
GN	2	0	0	0	17	0.007
EK
EX	0	5	1	0	1	0	0	0
FR	0	0	0	0	3.6	0
EN
